45
 energy: -78.923798446895 gnorm: 0.000344628684 xtb: 6.7.1 (edcfbbe)
C            3.05745198636387       -0.36846832654552       -0.57468335302796
C            1.80137113800954        0.41094139965663       -0.17078566991405
C            0.52895158334528       -0.30920353583426       -0.67242998115858
C           -0.71755184162371        0.60398507456197       -0.49915706235446
C           -1.98872027469824       -0.24167416430018       -0.28014020091119
C           -3.23401244314413        0.55178943635715       -0.53959123594522
O            4.21999936362371        0.22639213365661       -0.06413546750491
O            1.91252738064631        1.71350993633554       -0.71928864213135
O            0.42271545608025       -1.56580520539694       -0.04244255035536
O           -1.98594264160092       -0.71423419332650        1.05553257225579
O           -4.12351551015827        0.62488316323264        0.26726022371749
H            3.10236317715333       -0.43128097841467       -1.67018006764994
H            3.00648770005348       -1.37590498592809       -0.15999030675136
H            1.77021298410533        0.47316850000022        0.92551944854460
H            0.64392934735573       -0.50801318050066       -1.74437981789294
O           -0.56756279530635        1.51398187981929        0.56715135704211
H           -1.99290889279323       -1.08644931728606       -1.00128986906637
H           -3.27569165409366        1.04040987928006       -1.52396619332488
H            4.19376060566860        1.16083720564189       -0.30435388863523
H            1.18582540585914        2.23826541852267       -0.35625910040516
H           -0.22002710635115       -1.51581642869666        0.67875367647868
H           -2.88600185332310       -0.56852949855920        1.39367449124134
H           -0.83782846760110        1.20568724647728       -1.40476935301869
H           -0.80965688881702        1.04176673722367        1.37860956148749
O           -1.76469792706245       -0.55926811394773       -4.77591698187043
H           -2.55185762399117       -0.35900934839830       -5.28328736854129
H           -1.47068422434122        0.28100252917540       -4.35067999602327
O           -1.91490167370735       -2.23970104499337       -2.53634767899762
H           -1.92465031235313       -1.70135619402914       -3.34114855107870
H           -1.04663510284885       -2.67646047250027       -2.51158637936345
O           -0.95341496764783        1.71481293661333       -3.64593881477494
H            0.03944955366429        1.63816661781495       -3.61882776769128
H           -1.13472174933223        2.52273396509319       -4.12893034313407
O            0.31320665504147       -2.27792230369766       -5.28828088783032
H            0.12147212449726       -3.01830638972184       -4.70325739063283
H           -0.44844246696974       -1.67515849863714       -5.22386795609608
O            0.72948242564899       -3.12571306698048       -2.38659911486542
H            1.39819814997134       -2.53056377703884       -2.75482067652593
H            0.70168391939767       -2.92441183720883       -1.44212434011709
O            2.24715639433108       -1.17312268140683       -3.88302105104620
H            1.55605569098924       -1.51801533115376       -4.50766714370886
H            3.09256101705582       -1.36515825528902       -4.29200081564443
O            1.65371979506530        1.48721926495683       -3.49913560464377
H            1.90443116236040        0.56224044805834       -3.68131983359101
H            1.87408070151384        1.64634455728479       -2.56611337451203
